<nodes>
  <node id="n1" x="-100" y="0" type="priority"/>
  <node id="n2" x="0" y="0" type="traffic_light"/>
  <node id="n3" x="100" y="0" type="priority"/>
</nodes>