<?xml version="1.0" encoding="UTF-8"?>
<connections xmlns:xsi="http://www.w3.org/2001/XMLSchema-instance" xsi:noNamespaceSchemaLocation="http://sumo.dlr.de/xsd/connections_file.xsd">
    <!-- Carrefour i1 -->
    <connection from="e2" to="e3" fromLane="0" toLane="0"/>
    <connection from="e2" to="e3" fromLane="1" toLane="1"/>
    <connection from="e3_" to="e2_" fromLane="0" toLane="0"/>
    <connection from="e3_" to="e2_" fromLane="1" toLane="1"/>

    <!-- Carrefour i2 -->
    <connection from="e3" to="e6" fromLane="0" toLane="0"/>
    <connection from="e3" to="e6" fromLane="1" toLane="1"/>
    <connection from="e3" to="e4" fromLane="0" toLane="1"/>
    <connection from="e3" to="e4" fromLane="1" toLane="0"/>
    <connection from="e4_" to="e6" fromLane="0" toLane="0"/>
    <connection from="e4_" to="e3_" fromLane="0" toLane="0"/>
    <connection from="e4_" to="e3_" fromLane="1" toLane="1"/>
    <connection from="e6_" to="e4" fromLane="0" toLane="0"/>
    <connection from="e6_" to="e4" fromLane="1" toLane="1"/>
    <connection from="e6_" to="e3_" fromLane="0" toLane="0"/>

    <!-- Carrefour i3 -->
    <connection from="e6" to="e9" fromLane="0" toLane="0"/>
    <connection from="e6" to="e7" fromLane="0" toLane="1"/>
    <connection from="e6" to="e7" fromLane="1" toLane="0"/>
    <connection from="e7_" to="e9" fromLane="0" toLane="0"/>
    <connection from="e7_" to="e6_" fromLane="0" toLane="0"/>
    <connection from="e7_" to="e6_" fromLane="1" toLane="1"/>
    <connection from="e9_" to="e7" fromLane="0" toLane="1"/>
    <connection from="e9_" to="e6_" fromLane="0" toLane="0"/>

    <!-- Carrefour i4 -->
    <connection from="e9" to="e12" fromLane="0" toLane="0"/>
    <connection from="e9" to="e10" fromLane="0" toLane="0"/>
    <connection from="e10_" to="e12" fromLane="0" toLane="0"/>
    <connection from="e10_" to="e9_" fromLane="0" toLane="0"/>
</connections>