<?xml version="1.0" encoding="UTF-8"?>
<routes xmlns:xsi="http://www.w3.org/2001/XMLSchema-instance" xsi:noNamespaceSchemaLocation="http://sumo.dlr.de/xsd/routes_file.xsd">
    <!-- Définition des types de véhicules avec des émissions valides -->
    <vType id="car" accel="2.6" decel="4.5" sigma="0.5" length="5" minGap="2.5" maxSpeed="50" 
           emissionClass="HBEFA3/PC_G_EU4" guiShape="passenger"/>
    
    <vType id="bus" accel="1.2" decel="3.0" sigma="0.5" length="12" minGap="3.0" maxSpeed="40" 
           emissionClass="HBEFA3/Bus" guiShape="bus" color="1,0,0"/>
    
    <vType id="bicycle" accel="1.0" decel="3.0" sigma="0.5" length="1.8" minGap="1.0" maxSpeed="25" 
           emissionClass="Zero" guiShape="bicycle" color="0,1,0"/>

    <!-- Définition des routes -->
    <route id="route_est_ouest" edges="e1 e2 e3 e4 e5"/> <!-- Main east-west route -->
    <route id="route_ouest_est" edges="e5_ e4_ e3_ e2_ e1_"/> <!-- Main west-east route -->
    <route id="route_nord_sud" edges="e6 e7 e8"/> <!-- Main north-south route -->
    <route id="route_sud_nord" edges="e8_ e7_ e6_"/> <!-- Main south-north route -->
    <route id="route_secondaire_1" edges="e9 e10 e11"/> <!-- Secondary route (southwest) -->
    <route id="route_secondaire_2" edges="e12 e3 e6 e9"/> <!-- Secondary route (circular) -->

    <!-- Flux de véhicules pour une simulation réaliste -->
    <!-- Cars: 70% of traffic, ~700 vehicles over 3600s -->
    <flow id="car_flow_1" type="car" route="route_est_ouest" begin="0" end="3600" probability="0.136" /> <!-- ~490 cars -->
    <flow id="car_flow_2" type="car" route="route_ouest_est" begin="0" end="3600" probability="0.058" /> <!-- ~210 cars -->
    
    <!-- Buses: 10% of traffic, ~100 vehicles, roughly 1 bus every 36s -->
    <flow id="bus_flow_1" type="bus" route="route_est_ouest" begin="0" end="3600" probability="0.019" /> <!-- ~70 buses -->
    <flow id="bus_flow_2" type="bus" route="route_nord_sud" begin="0" end="3600" probability="0.008" /> <!-- ~30 buses -->
    
    <!-- Bicycles: 20% of traffic, ~200 vehicles -->
    <flow id="bike_flow_1" type="bicycle" route="route_secondaire_1" begin="0" end="3600" probability="0.028" /> <!-- ~100 bikes -->
    <flow id="bike_flow_2" type="bicycle" route="route_secondaire_2" begin="0" end="3600" probability="0.028" /> <!-- ~100 bikes -->
</routes>